lig_A
     RDKit          3D

 12 12  0  0  0  0  0  0  0  0999 V2000
  -32.7936    6.0992    2.6827 C   0  0  0  0  0  0  0  0  0  0  0  0
  -33.5931    4.9406    2.7077 C   0  0  0  0  0  0  0  0  0  0  0  0
  -34.3941    4.6607    3.8334 C   0  0  0  0  0  0  0  0  0  0  0  0
  -34.3948    5.5403    4.9331 C   0  0  0  0  0  0  0  0  0  0  0  0
  -33.5929    6.6979    4.9085 C   0  0  0  0  0  0  0  0  0  0  0  0
  -32.7958    6.9788    3.7829 C   0  0  0  0  0  0  0  0  0  0  0  0
  -32.1802    6.3135    1.8200 H   0  0  0  0  0  0  0  0  0  0  0  0
  -33.5944    4.2658    1.8636 H   0  0  0  0  0  0  0  0  0  0  0  0
  -35.0084    3.7719    3.8520 H   0  0  0  0  0  0  0  0  0  0  0  0
  -35.0078    5.3256    5.7963 H   0  0  0  0  0  0  0  0  0  0  0  0
  -33.5931    7.3734    5.7528 H   0  0  0  0  0  0  0  0  0  0  0  0
  -32.1794    7.8667    3.7644 H   0  0  0  0  0  0  0  0  0  0  0  0
  2  1  2  0
  3  2  1  0
  4  3  2  0
  5  4  1  0
  6  1  1  0
  6  5  2  0
  7  1  1  0
  8  2  1  0
  9  3  1  0
 10  4  1  0
 11  5  1  0
 12  6  1  0
M  END
>  <i_epik_Tot_Q>  (1) 
0

>  <i_f3d_flags>  (1) 
0

>  <i_m_Source_File_Index>  (1) 
1

>  <b_m_subgroup_collapsed>  (1) 
0

>  <r_epik_Ionization_Penalty>  (1) 
0

>  <r_epik_State_Penalty>  (1) 
0

>  <r_i_docking_score>  (1) 
-5.7441480803489702

>  <r_i_glide_emodel>  (1) 
-23.861695194110901

>  <r_i_glide_gscore>  (1) 
-5.7441480803489702

>  <r_lp_tautomer_probability>  (1) 
1

>  <s_m_Source_File>  (1) 
glide-dock_SP_43_pv.maegz

>  <s_m_Source_Path>  (1) 
/Users/denisbucher/glide-dock_SP_43

>  <s_m_entry_id>  (1) 
26

>  <s_m_job_name>  (1) 
glide-dock_SP_43

>  <s_m_subgroup_title>  (1) 
glide-dock_SP_43_pv

>  <s_m_subgroupid>  (1) 
glide-dock_SP_43_pv

>  <atom.dprop.PartialCharge>  (1) 
-0.21421748399734497 -0.21421755850315094 -0.21421752870082855 -0.21421754360198975 -0.21421754360198975 -0.21421752870082855 0.21421751379966736 0.21421751379966736 0.21421752870082855
0.21421748399734497 0.21421752870082855 0.21421748399734497

$$$$
lig_B
     RDKit          3D

 15 15  0  0  0  0  0  0  0  0999 V2000
  -32.4480    6.7303    1.9276 C   0  0  0  0  0  0  0  0  0  0  0  0
  -33.1922    6.2886    3.1657 C   0  0  0  0  0  0  0  0  0  0  0  0
  -34.0116    5.1425    3.1320 C   0  0  0  0  0  0  0  0  0  0  0  0
  -34.7433    4.7657    4.2753 C   0  0  0  0  0  0  0  0  0  0  0  0
  -34.6462    5.5304    5.4545 C   0  0  0  0  0  0  0  0  0  0  0  0
  -33.8099    6.6648    5.4966 C   0  0  0  0  0  0  0  0  0  0  0  0
  -33.0724    7.0291    4.3555 C   0  0  0  0  0  0  0  0  0  0  0  0
  -31.6628    7.4508    2.1612 H   0  0  0  0  0  0  0  0  0  0  0  0
  -33.1353    7.1903    1.2171 H   0  0  0  0  0  0  0  0  0  0  0  0
  -31.9926    5.8651    1.4568 H   0  0  0  0  0  0  0  0  0  0  0  0
  -34.0930    4.5630    2.2247 H   0  0  0  0  0  0  0  0  0  0  0  0
  -35.3776    3.8921    4.2508 H   0  0  0  0  0  0  0  0  0  0  0  0
  -35.1946    5.2338    6.3351 H   0  0  0  0  0  0  0  0  0  0  0  0
  -33.7143    7.2371    6.4069 H   0  0  0  0  0  0  0  0  0  0  0  0
  -32.3955    7.8652    4.3956 H   0  0  0  0  0  0  0  0  0  0  0  0
  2  1  1  0
  3  2  2  0
  4  3  1  0
  5  4  2  0
  6  5  1  0
  7  2  1  0
  7  6  2  0
  8  1  1  0
  9  1  1  0
 10  1  1  0
 11  3  1  0
 12  4  1  0
 13  5  1  0
 14  6  1  0
 15  7  1  0
M  END
>  <i_epik_Tot_Q>  (2) 
0

>  <i_f3d_flags>  (2) 
0

>  <i_m_Source_File_Index>  (2) 
1

>  <b_m_subgroup_collapsed>  (2) 
0

>  <r_epik_Ionization_Penalty>  (2) 
0

>  <r_epik_State_Penalty>  (2) 
0

>  <r_i_docking_score>  (2) 
-6.2108953503662301

>  <r_i_glide_emodel>  (2) 
-25.6180442011918

>  <r_i_glide_gscore>  (2) 
-6.2108953503662301

>  <r_lp_tautomer_probability>  (2) 
1

>  <s_m_Source_File>  (2) 
glide-dock_SP_43_pv.maegz

>  <s_m_Source_Path>  (2) 
/Users/denisbucher/glide-dock_SP_43

>  <s_m_entry_id>  (2) 
24

>  <s_m_job_name>  (2) 
glide-dock_SP_43

>  <s_m_subgroup_title>  (2) 
glide-dock_SP_43_pv

>  <s_m_subgroupid>  (2) 
glide-dock_SP_43_pv

>  <atom.dprop.PartialCharge>  (2) 
-0.13826468586921692 -0.1332864910364151 -0.29159817099571228 -0.17413182556629181 -0.21243682503700256 -0.17413182556629181 -0.29159829020500183 0.098291411995887756 0.098291411995887756
0.098291411995887756 0.22463852167129517 0.22361449897289276 0.22406795620918274 0.22361446917057037 0.22463852167129517

$$$$
lig_C
     RDKit          3D

 13 13  0  0  0  0  0  0  0  0999 V2000
  -32.7942    6.2223    2.4575 C   0  0  0  0  0  0  0  0  0  0  0  0
  -32.7937    7.0251    3.6118 C   0  0  0  0  0  0  0  0  0  0  0  0
  -33.5930    6.6658    4.7142 C   0  0  0  0  0  0  0  0  0  0  0  0
  -34.3972    5.5118    4.6543 C   0  0  0  0  0  0  0  0  0  0  0  0
  -34.3905    4.7025    3.5063 C   0  0  0  0  0  0  0  0  0  0  0  0
  -33.5885    5.0613    2.4105 C   0  0  0  0  0  0  0  0  0  0  0  0
  -35.1758    5.1717    5.7171 O   0  0  0  0  0  0  0  0  0  0  0  0
  -32.1802    6.4921    1.6106 H   0  0  0  0  0  0  0  0  0  0  0  0
  -32.1746    7.9081    3.6510 H   0  0  0  0  0  0  0  0  0  0  0  0
  -33.5908    7.2803    5.6034 H   0  0  0  0  0  0  0  0  0  0  0  0
  -35.0011    3.8139    3.4619 H   0  0  0  0  0  0  0  0  0  0  0  0
  -33.5933    4.4423    1.5290 H   0  0  0  0  0  0  0  0  0  0  0  0
  -35.8393    4.5194    5.5346 H   0  0  0  0  0  0  0  0  0  0  0  0
  2  1  2  0
  3  2  1  0
  4  3  2  0
  5  4  1  0
  6  1  1  0
  6  5  2  0
  7  4  1  0
  8  1  1  0
  9  2  1  0
 10  3  1  0
 11  5  1  0
 12  6  1  0
 13  7  1  0
M  END
>  <i_epik_Tot_Q>  (3) 
0

>  <i_f3d_flags>  (3) 
0

>  <i_m_Source_File_Index>  (3) 
1

>  <b_m_subgroup_collapsed>  (3) 
0

>  <r_epik_Ionization_Penalty>  (3) 
0.00089999999999999998

>  <r_epik_State_Penalty>  (3) 
0

>  <r_i_docking_score>  (3) 
-6.22255124635707

>  <r_i_glide_emodel>  (3) 
-27.060984174234498

>  <r_i_glide_gscore>  (3) 
-6.22255124635707

>  <r_lp_tautomer_probability>  (3) 
1

>  <s_m_Source_File>  (3) 
glide-dock_SP_43_pv.maegz

>  <s_m_Source_Path>  (3) 
/Users/denisbucher/glide-dock_SP_43

>  <s_m_entry_id>  (3) 
23

>  <s_m_job_name>  (3) 
glide-dock_SP_43

>  <s_m_subgroup_title>  (3) 
glide-dock_SP_43_pv

>  <s_m_subgroupid>  (3) 
glide-dock_SP_43_pv

>  <atom.dprop.PartialCharge>  (3) 
-0.2627074122428894 -0.10276156663894653 -0.42202740907669067 0.42761912941932678 -0.42202743887901306 -0.10276158899068832 -0.6526903510093689 0.21529632806777954 0.21810181438922882
0.22749459743499756 0.22749459743499756 0.2181018590927124 0.43086740374565125

$$$$
lig_D
     RDKit          3D

 14 14  0  0  0  0  0  0  0  0999 V2000
  -33.1892    6.9679    4.3912 C   0  0  0  0  0  0  0  0  0  0  0  0
  -33.9901    6.5492    5.4693 C   0  0  0  0  0  0  0  0  0  0  0  0
  -34.7918    5.3995    5.3411 C   0  0  0  0  0  0  0  0  0  0  0  0
  -34.7884    4.6683    4.1379 C   0  0  0  0  0  0  0  0  0  0  0  0
  -33.9830    5.0876    3.0599 C   0  0  0  0  0  0  0  0  0  0  0  0
  -33.1934    6.2467    3.1848 C   0  0  0  0  0  0  0  0  0  0  0  0
  -32.4173    6.6932    2.1172 N   0  0  0  0  0  0  0  0  0  0  0  0
  -32.5574    7.8366    4.4867 H   0  0  0  0  0  0  0  0  0  0  0  0
  -33.9806    7.1076    6.3932 H   0  0  0  0  0  0  0  0  0  0  0  0
  -35.4059    5.0667    6.1664 H   0  0  0  0  0  0  0  0  0  0  0  0
  -35.4051    3.7895    4.0435 H   0  0  0  0  0  0  0  0  0  0  0  0
  -33.9862    4.5301    2.1358 H   0  0  0  0  0  0  0  0  0  0  0  0
  -32.3721    6.1804    1.2494 H   0  0  0  0  0  0  0  0  0  0  0  0
  -31.8182    7.5048    2.1910 H   0  0  0  0  0  0  0  0  0  0  0  0
  2  1  2  0
  3  2  1  0
  4  3  2  0
  5  4  1  0
  6  1  1  0
  6  5  2  0
  7  6  1  0
  8  1  1  0
  9  2  1  0
 10  3  1  0
 11  4  1  0
 12  5  1  0
 13  7  1  0
 14  7  1  0
M  END
>  <i_epik_Tot_Q>  (4) 
0

>  <i_f3d_flags>  (4) 
0

>  <i_m_Source_File_Index>  (4) 
1

>  <b_m_subgroup_collapsed>  (4) 
0

>  <r_epik_Ionization_Penalty>  (4) 
0.0022000000000000001

>  <r_epik_State_Penalty>  (4) 
0

>  <r_i_docking_score>  (4) 
-5.7781261625370703

>  <r_i_glide_emodel>  (4) 
-26.225689904247702

>  <r_i_glide_gscore>  (4) 
-5.7781261625370703

>  <r_lp_tautomer_probability>  (4) 
1

>  <s_m_Source_File>  (4) 
glide-dock_SP_43_pv.maegz

>  <s_m_Source_Path>  (4) 
/Users/denisbucher/glide-dock_SP_43

>  <s_m_entry_id>  (4) 
25

>  <s_m_job_name>  (4) 
glide-dock_SP_43

>  <s_m_subgroup_title>  (4) 
glide-dock_SP_43_pv

>  <s_m_subgroupid>  (4) 
glide-dock_SP_43_pv

>  <atom.dprop.PartialCharge>  (4) 
-0.44910988211631775 -0.087270990014076233 -0.2688843309879303 -0.087270960211753845 -0.44910982251167297 0.33494511246681213 -0.84628587961196899 0.22522038221359253 0.22621479630470276
0.22342811524868011 0.22621476650238037 0.22522039711475372 0.36334410309791565 0.36334410309791565

$$$$
lig_E
     RDKit          3D

 21 21  0  0  0  0  0  0  0  0999 V2000
  -31.5936    8.2368    3.7820 C   0  0  0  0  0  0  0  0  0  0  0  0
  -32.7341    7.7611    2.8933 C   0  0  0  0  0  0  0  0  0  0  0  0
  -32.3866    7.7367    1.3939 C   0  0  0  0  0  0  0  0  0  0  0  0
  -33.3158    6.4959    3.4568 C   0  0  0  0  0  0  0  0  0  0  0  0
  -33.9956    6.5633    4.6913 C   0  0  0  0  0  0  0  0  0  0  0  0
  -34.7428    5.4652    5.1484 C   0  0  0  0  0  0  0  0  0  0  0  0
  -34.7778    4.2976    4.3738 C   0  0  0  0  0  0  0  0  0  0  0  0
  -33.9936    4.2002    3.2200 C   0  0  0  0  0  0  0  0  0  0  0  0
  -33.2499    5.2847    2.7578 C   0  0  0  0  0  0  0  0  0  0  0  0
  -31.7154    7.9586    4.8290 H   0  0  0  0  0  0  0  0  0  0  0  0
  -31.5936    9.3191    3.7362 H   0  0  0  0  0  0  0  0  0  0  0  0
  -30.6320    7.8476    3.4568 H   0  0  0  0  0  0  0  0  0  0  0  0
  -33.5628    8.4554    2.9607 H   0  0  0  0  0  0  0  0  0  0  0  0
  -33.2539    7.4652    0.7922 H   0  0  0  0  0  0  0  0  0  0  0  0
  -32.0641    8.7202    1.0550 H   0  0  0  0  0  0  0  0  0  0  0  0
  -31.5817    7.0391    1.1690 H   0  0  0  0  0  0  0  0  0  0  0  0
  -33.9936    7.4794    5.2626 H   0  0  0  0  0  0  0  0  0  0  0  0
  -35.2964    5.5160    6.0717 H   0  0  0  0  0  0  0  0  0  0  0  0
  -35.3919    3.4652    4.6568 H   0  0  0  0  0  0  0  0  0  0  0  0
  -33.9936    3.2894    2.6583 H   0  0  0  0  0  0  0  0  0  0  0  0
  -32.6755    5.1839    1.8568 H   0  0  0  0  0  0  0  0  0  0  0  0
  2  1  1  0
  3  2  1  0
  4  2  1  0
  5  4  2  0
  6  5  1  0
  7  6  2  0
  8  7  1  0
  9  4  1  0
  9  8  2  0
 10  1  1  0
 11  1  1  0
 12  1  1  0
 13  2  1  0
 14  3  1  0
 15  3  1  0
 16  3  1  0
 17  5  1  0
 18  6  1  0
 19  7  1  0
 20  8  1  0
 21  9  1  0
M  END
>  <i_epik_Tot_Q>  (5) 
0

>  <i_f3d_flags>  (5) 
0

>  <i_m_Source_File_Index>  (5) 
1

>  <b_m_subgroup_collapsed>  (5) 
0

>  <r_epik_Ionization_Penalty>  (5) 
0

>  <r_epik_State_Penalty>  (5) 
0

>  <r_i_docking_score>  (5) 
-6.4881187379779499

>  <r_i_glide_emodel>  (5) 
-14.0181814238819

>  <r_i_glide_gscore>  (5) 
-6.4881187379779499

>  <r_lp_tautomer_probability>  (5) 
1

>  <s_m_Source_File>  (5) 
glide-dock_SP_43_pv.maegz

>  <s_m_Source_Path>  (5) 
/Users/denisbucher/glide-dock_SP_43

>  <s_m_entry_id>  (5) 
22

>  <s_m_job_name>  (5) 
glide-dock_SP_43

>  <s_m_subgroup_title>  (5) 
glide-dock_SP_43_pv

>  <s_m_subgroupid>  (5) 
glide-dock_SP_43_pv

>  <atom.dprop.PartialCharge>  (5) 
-0.13043276965618134 -0.084244437515735626 -0.13043279945850372 -0.23484349250793457 -0.23306715488433838 -0.19840775430202484 -0.21852417290210724 -0.19840775430202484
-0.23306718468666077 0.080657467246055603 0.080657467246055603 0.080657467246055603 0.10093244165182114 0.080657482147216797 0.080657482147216797 0.080657482147216797 0.21165795624256134
0.21755954623222351 0.21811489760875702 0.21755954623222351 0.21165798604488373

$$$$
